* NGSPICE file created from divider.ext - technology: sky130A

* Black-box entry subcircuit for sky130_fd_sc_hd__tapvpwrvgnd_1 abstract view
.subckt sky130_fd_sc_hd__tapvpwrvgnd_1 VGND VPWR
.ends

* Black-box entry subcircuit for sky130_fd_sc_hd__decap_3 abstract view
.subckt sky130_fd_sc_hd__decap_3 VGND VNB VPB VPWR
.ends

* Black-box entry subcircuit for sky130_fd_sc_hd__fill_1 abstract view
.subckt sky130_fd_sc_hd__fill_1 VGND VNB VPB VPWR
.ends

* Black-box entry subcircuit for sky130_fd_sc_hd__dfrtp_1 abstract view
.subckt sky130_fd_sc_hd__dfrtp_1 CLK D RESET_B VGND VNB VPB VPWR Q
.ends

* Black-box entry subcircuit for sky130_fd_sc_hd__decap_8 abstract view
.subckt sky130_fd_sc_hd__decap_8 VGND VNB VPB VPWR
.ends

* Black-box entry subcircuit for sky130_fd_sc_hd__clkbuf_1 abstract view
.subckt sky130_fd_sc_hd__clkbuf_1 A VGND VNB VPB VPWR X
.ends

* Black-box entry subcircuit for sky130_fd_sc_hd__a311o_1 abstract view
.subckt sky130_fd_sc_hd__a311o_1 A1 A2 A3 B1 C1 VGND VNB VPB VPWR X
.ends

* Black-box entry subcircuit for sky130_ef_sc_hd__decap_12 abstract view
.subckt sky130_ef_sc_hd__decap_12 VGND VNB VPB VPWR
.ends

* Black-box entry subcircuit for sky130_fd_sc_hd__dfrtp_4 abstract view
.subckt sky130_fd_sc_hd__dfrtp_4 CLK D RESET_B VGND VNB VPB VPWR Q
.ends

* Black-box entry subcircuit for sky130_fd_sc_hd__and2b_1 abstract view
.subckt sky130_fd_sc_hd__and2b_1 A_N B VGND VNB VPB VPWR X
.ends

* Black-box entry subcircuit for sky130_fd_sc_hd__fill_2 abstract view
.subckt sky130_fd_sc_hd__fill_2 VGND VNB VPB VPWR
.ends

* Black-box entry subcircuit for sky130_fd_sc_hd__xnor2_1 abstract view
.subckt sky130_fd_sc_hd__xnor2_1 A B VGND VNB VPB VPWR Y
.ends

* Black-box entry subcircuit for sky130_fd_sc_hd__o21ai_1 abstract view
.subckt sky130_fd_sc_hd__o21ai_1 A1 A2 B1 VGND VNB VPB VPWR Y
.ends

* Black-box entry subcircuit for sky130_fd_sc_hd__nand2_1 abstract view
.subckt sky130_fd_sc_hd__nand2_1 A B VGND VNB VPB VPWR Y
.ends

* Black-box entry subcircuit for sky130_fd_sc_hd__decap_6 abstract view
.subckt sky130_fd_sc_hd__decap_6 VGND VNB VPB VPWR
.ends

* Black-box entry subcircuit for sky130_fd_sc_hd__decap_4 abstract view
.subckt sky130_fd_sc_hd__decap_4 VGND VNB VPB VPWR
.ends

* Black-box entry subcircuit for sky130_fd_sc_hd__buf_2 abstract view
.subckt sky130_fd_sc_hd__buf_2 A VGND VNB VPB VPWR X
.ends

* Black-box entry subcircuit for sky130_fd_sc_hd__or4_1 abstract view
.subckt sky130_fd_sc_hd__or4_1 A B C D VGND VNB VPB VPWR X
.ends

* Black-box entry subcircuit for sky130_fd_sc_hd__o221a_1 abstract view
.subckt sky130_fd_sc_hd__o221a_1 A1 A2 B1 B2 C1 VGND VNB VPB VPWR X
.ends

* Black-box entry subcircuit for sky130_fd_sc_hd__a21o_1 abstract view
.subckt sky130_fd_sc_hd__a21o_1 A1 A2 B1 VGND VNB VPB VPWR X
.ends

* Black-box entry subcircuit for sky130_fd_sc_hd__mux2_1 abstract view
.subckt sky130_fd_sc_hd__mux2_1 A0 A1 S VGND VNB VPB VPWR X
.ends

* Black-box entry subcircuit for sky130_fd_sc_hd__nor2b_1 abstract view
.subckt sky130_fd_sc_hd__nor2b_1 A B_N VGND VNB VPB VPWR Y
.ends

* Black-box entry subcircuit for sky130_fd_sc_hd__dlygate4sd3_1 abstract view
.subckt sky130_fd_sc_hd__dlygate4sd3_1 A VGND VNB VPB VPWR X
.ends

* Black-box entry subcircuit for sky130_fd_sc_hd__clkbuf_4 abstract view
.subckt sky130_fd_sc_hd__clkbuf_4 A VGND VNB VPB VPWR X
.ends

* Black-box entry subcircuit for sky130_fd_sc_hd__clkbuf_16 abstract view
.subckt sky130_fd_sc_hd__clkbuf_16 A VGND VNB VPB VPWR X
.ends

* Black-box entry subcircuit for sky130_fd_sc_hd__dfrtp_2 abstract view
.subckt sky130_fd_sc_hd__dfrtp_2 CLK D RESET_B VGND VNB VPB VPWR Q
.ends

* Black-box entry subcircuit for sky130_fd_sc_hd__o21ba_1 abstract view
.subckt sky130_fd_sc_hd__o21ba_1 A1 A2 B1_N VGND VNB VPB VPWR X
.ends

* Black-box entry subcircuit for sky130_fd_sc_hd__inv_2 abstract view
.subckt sky130_fd_sc_hd__inv_2 A VGND VNB VPB VPWR Y
.ends

* Black-box entry subcircuit for sky130_fd_sc_hd__or2b_1 abstract view
.subckt sky130_fd_sc_hd__or2b_1 A B_N VGND VNB VPB VPWR X
.ends

* Black-box entry subcircuit for sky130_fd_sc_hd__a21bo_1 abstract view
.subckt sky130_fd_sc_hd__a21bo_1 A1 A2 B1_N VGND VNB VPB VPWR X
.ends

* Black-box entry subcircuit for sky130_fd_sc_hd__or3_1 abstract view
.subckt sky130_fd_sc_hd__or3_1 A B C VGND VNB VPB VPWR X
.ends

* Black-box entry subcircuit for sky130_fd_sc_hd__o211a_1 abstract view
.subckt sky130_fd_sc_hd__o211a_1 A1 A2 B1 C1 VGND VNB VPB VPWR X
.ends

* Black-box entry subcircuit for sky130_fd_sc_hd__or2b_2 abstract view
.subckt sky130_fd_sc_hd__or2b_2 A B_N VGND VNB VPB VPWR X
.ends

* Black-box entry subcircuit for sky130_fd_sc_hd__and2_1 abstract view
.subckt sky130_fd_sc_hd__and2_1 A B VGND VNB VPB VPWR X
.ends

* Black-box entry subcircuit for sky130_fd_sc_hd__nor2_1 abstract view
.subckt sky130_fd_sc_hd__nor2_1 A B VGND VNB VPB VPWR Y
.ends

* Black-box entry subcircuit for sky130_fd_sc_hd__clkbuf_2 abstract view
.subckt sky130_fd_sc_hd__clkbuf_2 A VGND VNB VPB VPWR X
.ends

* Black-box entry subcircuit for sky130_fd_sc_hd__a21oi_2 abstract view
.subckt sky130_fd_sc_hd__a21oi_2 A1 A2 B1 VGND VNB VPB VPWR Y
.ends

* Black-box entry subcircuit for sky130_fd_sc_hd__buf_4 abstract view
.subckt sky130_fd_sc_hd__buf_4 A VGND VNB VPB VPWR X
.ends

* Black-box entry subcircuit for sky130_fd_sc_hd__and3_1 abstract view
.subckt sky130_fd_sc_hd__and3_1 A B C VGND VNB VPB VPWR X
.ends

* Black-box entry subcircuit for sky130_fd_sc_hd__xor2_2 abstract view
.subckt sky130_fd_sc_hd__xor2_2 A B VGND VNB VPB VPWR X
.ends

* Black-box entry subcircuit for sky130_fd_sc_hd__xor2_1 abstract view
.subckt sky130_fd_sc_hd__xor2_1 A B VGND VNB VPB VPWR X
.ends

* Black-box entry subcircuit for sky130_fd_sc_hd__or2_1 abstract view
.subckt sky130_fd_sc_hd__or2_1 A B VGND VNB VPB VPWR X
.ends

* Black-box entry subcircuit for sky130_fd_sc_hd__o31a_1 abstract view
.subckt sky130_fd_sc_hd__o31a_1 A1 A2 A3 B1 VGND VNB VPB VPWR X
.ends

* Black-box entry subcircuit for sky130_fd_sc_hd__o311ai_2 abstract view
.subckt sky130_fd_sc_hd__o311ai_2 A1 A2 A3 B1 C1 VGND VNB VPB VPWR Y
.ends

* Black-box entry subcircuit for sky130_fd_sc_hd__a221o_1 abstract view
.subckt sky130_fd_sc_hd__a221o_1 A1 A2 B1 B2 C1 VGND VNB VPB VPWR X
.ends

* Black-box entry subcircuit for sky130_fd_sc_hd__o31ai_2 abstract view
.subckt sky130_fd_sc_hd__o31ai_2 A1 A2 A3 B1 VGND VNB VPB VPWR Y
.ends

* Black-box entry subcircuit for sky130_fd_sc_hd__o21a_1 abstract view
.subckt sky130_fd_sc_hd__o21a_1 A1 A2 B1 VGND VNB VPB VPWR X
.ends

* Black-box entry subcircuit for sky130_fd_sc_hd__or3b_1 abstract view
.subckt sky130_fd_sc_hd__or3b_1 A B C_N VGND VNB VPB VPWR X
.ends

* Black-box entry subcircuit for sky130_fd_sc_hd__a31oi_1 abstract view
.subckt sky130_fd_sc_hd__a31oi_1 A1 A2 A3 B1 VGND VNB VPB VPWR Y
.ends

* Black-box entry subcircuit for sky130_fd_sc_hd__and4_1 abstract view
.subckt sky130_fd_sc_hd__and4_1 A B C D VGND VNB VPB VPWR X
.ends

* Black-box entry subcircuit for sky130_fd_sc_hd__buf_1 abstract view
.subckt sky130_fd_sc_hd__buf_1 A VGND VNB VPB VPWR X
.ends

* Black-box entry subcircuit for sky130_fd_sc_hd__a211o_1 abstract view
.subckt sky130_fd_sc_hd__a211o_1 A1 A2 B1 C1 VGND VNB VPB VPWR X
.ends

* Black-box entry subcircuit for sky130_fd_sc_hd__nand3_1 abstract view
.subckt sky130_fd_sc_hd__nand3_1 A B C VGND VNB VPB VPWR Y
.ends

* Black-box entry subcircuit for sky130_fd_sc_hd__dlymetal6s2s_1 abstract view
.subckt sky130_fd_sc_hd__dlymetal6s2s_1 A VGND VNB VPB VPWR X
.ends

* Black-box entry subcircuit for sky130_fd_sc_hd__o31a_2 abstract view
.subckt sky130_fd_sc_hd__o31a_2 A1 A2 A3 B1 VGND VNB VPB VPWR X
.ends

* Black-box entry subcircuit for sky130_fd_sc_hd__o2111a_1 abstract view
.subckt sky130_fd_sc_hd__o2111a_1 A1 A2 B1 C1 D1 VGND VNB VPB VPWR X
.ends

* Black-box entry subcircuit for sky130_fd_sc_hd__o211ai_1 abstract view
.subckt sky130_fd_sc_hd__o211ai_1 A1 A2 B1 C1 VGND VNB VPB VPWR Y
.ends

* Black-box entry subcircuit for sky130_fd_sc_hd__a21oi_1 abstract view
.subckt sky130_fd_sc_hd__a21oi_1 A1 A2 B1 VGND VNB VPB VPWR Y
.ends

* Black-box entry subcircuit for sky130_fd_sc_hd__xnor2_2 abstract view
.subckt sky130_fd_sc_hd__xnor2_2 A B VGND VNB VPB VPWR Y
.ends

* Black-box entry subcircuit for sky130_fd_sc_hd__o311a_1 abstract view
.subckt sky130_fd_sc_hd__o311a_1 A1 A2 A3 B1 C1 VGND VNB VPB VPWR X
.ends

* Black-box entry subcircuit for sky130_fd_sc_hd__nand3_2 abstract view
.subckt sky130_fd_sc_hd__nand3_2 A B C VGND VNB VPB VPWR Y
.ends

* Black-box entry subcircuit for sky130_fd_sc_hd__a31o_1 abstract view
.subckt sky130_fd_sc_hd__a31o_1 A1 A2 A3 B1 VGND VNB VPB VPWR X
.ends

* Black-box entry subcircuit for sky130_fd_sc_hd__diode_2 abstract view
.subckt sky130_fd_sc_hd__diode_2 DIODE VGND VNB VPB VPWR
.ends

* Black-box entry subcircuit for sky130_fd_sc_hd__o21ai_2 abstract view
.subckt sky130_fd_sc_hd__o21ai_2 A1 A2 B1 VGND VNB VPB VPWR Y
.ends

.subckt divider A[0] A[10] A[11] A[12] A[13] A[14] A[15] A[16] A[17] A[18] A[19] A[1]
+ A[20] A[21] A[22] A[23] A[24] A[25] A[26] A[27] A[28] A[29] A[2] A[30] A[31] A[3]
+ A[4] A[5] A[6] A[7] A[8] A[9] B[0] B[10] B[11] B[12] B[13] B[14] B[15] B[16] B[17]
+ B[18] B[19] B[1] B[20] B[21] B[22] B[23] B[24] B[25] B[26] B[27] B[28] B[29] B[2]
+ B[30] B[31] B[3] B[4] B[5] B[6] B[7] B[8] B[9] D[0] D[10] D[11] D[12] D[13] D[14]
+ D[15] D[16] D[17] D[18] D[19] D[1] D[20] D[21] D[22] D[23] D[24] D[25] D[26] D[27]
+ D[28] D[29] D[2] D[30] D[31] D[3] D[4] D[5] D[6] D[7] D[8] D[9] R[0] R[10] R[11]
+ R[12] R[13] R[14] R[15] R[16] R[17] R[18] R[19] R[1] R[20] R[21] R[22] R[23] R[24]
+ R[25] R[26] R[27] R[28] R[29] R[2] R[30] R[31] R[3] R[4] R[5] R[6] R[7] R[8] R[9]
+ VGND VPWR clk err ok reset start
XTAP_177 VGND VPWR sky130_fd_sc_hd__tapvpwrvgnd_1
XTAP_188 VGND VPWR sky130_fd_sc_hd__tapvpwrvgnd_1
XTAP_199 VGND VPWR sky130_fd_sc_hd__tapvpwrvgnd_1
XFILLER_0_4_193 VGND VGND VPWR VPWR sky130_fd_sc_hd__decap_3
XFILLER_0_4_171 VGND VGND VPWR VPWR sky130_fd_sc_hd__fill_1
XFILLER_0_23_225 VGND VGND VPWR VPWR sky130_fd_sc_hd__fill_1
X_1270_ clknet_3_5__leaf_clk _0108_ _0012_ VGND VGND VPWR VPWR reg32_denom.bit6.BitOut
+ sky130_fd_sc_hd__dfrtp_1
XFILLER_0_3_39 VGND VGND VPWR VPWR sky130_fd_sc_hd__decap_8
X_0985_ _0461_ VGND VGND VPWR VPWR reg32_result.bit14.BitData sky130_fd_sc_hd__clkbuf_1
XFILLER_0_18_29 VGND VGND VPWR VPWR sky130_fd_sc_hd__fill_1
X_0770_ _0205_ _0203_ _0292_ _0202_ _0212_ VGND VGND VPWR VPWR _0293_ sky130_fd_sc_hd__a311o_1
XFILLER_0_11_228 VGND VGND VPWR VPWR sky130_ef_sc_hd__decap_12
X_1322_ clknet_3_2__leaf_clk reg32_work.bit27.BitData _0064_ VGND VGND VPWR VPWR net118
+ sky130_fd_sc_hd__dfrtp_4
X_1253_ _0151_ VGND VGND VPWR VPWR _0099_ sky130_fd_sc_hd__clkbuf_1
X_1184_ _0563_ _0564_ VGND VGND VPWR VPWR _0573_ sky130_fd_sc_hd__and2b_1
X_0968_ _0452_ VGND VGND VPWR VPWR reg32_result.bit6.BitData sky130_fd_sc_hd__clkbuf_1
XFILLER_0_24_83 VGND VGND VPWR VPWR sky130_fd_sc_hd__fill_1
XFILLER_0_40_93 VGND VGND VPWR VPWR sky130_fd_sc_hd__fill_2
X_0899_ _0216_ _0402_ VGND VGND VPWR VPWR _0403_ sky130_fd_sc_hd__xnor2_1
XFILLER_0_4_82 VGND VGND VPWR VPWR sky130_fd_sc_hd__fill_2
XFILLER_0_9_49 VGND VGND VPWR VPWR sky130_fd_sc_hd__decap_3
XFILLER_0_28_114 VGND VGND VPWR VPWR sky130_fd_sc_hd__fill_1
X_0822_ reg32_denom.bit3.BitOut net121 VGND VGND VPWR VPWR _0342_ sky130_fd_sc_hd__and2b_1
X_0753_ _0268_ _0271_ _0272_ VGND VGND VPWR VPWR _0276_ sky130_fd_sc_hd__o21ai_1
X_0684_ _0205_ _0206_ VGND VGND VPWR VPWR _0207_ sky130_fd_sc_hd__nand2_1
XFILLER_0_3_203 VGND VGND VPWR VPWR sky130_fd_sc_hd__fill_1
X_1305_ clknet_3_5__leaf_clk reg32_work.bit10.BitData _0047_ VGND VGND VPWR VPWR net100
+ sky130_fd_sc_hd__dfrtp_4
XFILLER_0_19_94 VGND VGND VPWR VPWR sky130_fd_sc_hd__decap_6
X_1236_ _0140_ _0141_ VGND VGND VPWR VPWR _0143_ sky130_fd_sc_hd__and2b_1
XFILLER_0_35_93 VGND VGND VPWR VPWR sky130_fd_sc_hd__decap_4
X_1098_ _0515_ _0516_ VGND VGND VPWR VPWR _0526_ sky130_fd_sc_hd__and2b_1
X_1167_ _0491_ VGND VGND VPWR VPWR _0564_ sky130_fd_sc_hd__buf_2
XFILLER_0_34_139 VGND VGND VPWR VPWR sky130_fd_sc_hd__fill_1
XFILLER_0_19_158 VGND VGND VPWR VPWR sky130_fd_sc_hd__decap_8
XFILLER_0_0_217 VGND VGND VPWR VPWR sky130_fd_sc_hd__fill_1
X_1021_ net39 net38 net37 net36 VGND VGND VPWR VPWR _0480_ sky130_fd_sc_hd__or4_1
X_0805_ reg32_denom.bit31.BitOut _0324_ _0323_ _0326_ _0327_ VGND VGND VPWR VPWR _0328_
+ sky130_fd_sc_hd__o221a_1
XFILLER_0_16_139 VGND VGND VPWR VPWR sky130_fd_sc_hd__fill_1
X_0667_ net136 net137 _0193_ VGND VGND VPWR VPWR cycle_reg.bit1.BitData sky130_fd_sc_hd__a21o_1
X_0598_ net58 reg32_denom.bit3.BitOut _0154_ VGND VGND VPWR VPWR _0157_ sky130_fd_sc_hd__mux2_1
X_0736_ reg32_denom.bit12.BitOut net101 VGND VGND VPWR VPWR _0259_ sky130_fd_sc_hd__nor2b_1
X_1219_ _0592_ VGND VGND VPWR VPWR _0083_ sky130_fd_sc_hd__clkbuf_1
XFILLER_0_30_131 VGND VGND VPWR VPWR sky130_fd_sc_hd__decap_8
Xhold30 reg32_denom.bit5.BitOut VGND VGND VPWR VPWR net163 sky130_fd_sc_hd__dlygate4sd3_1
XFILLER_0_38_253 VGND VGND VPWR VPWR sky130_ef_sc_hd__decap_12
XFILLER_0_21_164 VGND VGND VPWR VPWR sky130_fd_sc_hd__decap_4
XFILLER_0_20_9 VGND VGND VPWR VPWR sky130_ef_sc_hd__decap_12
XFILLER_0_44_223 VGND VGND VPWR VPWR sky130_fd_sc_hd__fill_1
XFILLER_0_44_212 VGND VGND VPWR VPWR sky130_fd_sc_hd__fill_1
XFILLER_0_8_103 VGND VGND VPWR VPWR sky130_fd_sc_hd__decap_3
XFILLER_0_16_73 VGND VGND VPWR VPWR sky130_fd_sc_hd__fill_1
X_1004_ net17 net82 _0191_ VGND VGND VPWR VPWR _0471_ sky130_fd_sc_hd__mux2_1
XFILLER_0_44_234 VGND VGND VPWR VPWR sky130_fd_sc_hd__decap_4
XFILLER_0_12_153 VGND VGND VPWR VPWR sky130_fd_sc_hd__decap_8
X_0719_ net126 reg32_denom.bit6.BitOut VGND VGND VPWR VPWR _0242_ sky130_fd_sc_hd__and2b_1
XFILLER_0_12_197 VGND VGND VPWR VPWR sky130_fd_sc_hd__fill_2
Xoutput75 net75 VGND VGND VPWR VPWR D[17] sky130_fd_sc_hd__clkbuf_4
XFILLER_0_37_17 VGND VGND VPWR VPWR sky130_fd_sc_hd__decap_3
Xoutput97 net97 VGND VGND VPWR VPWR D[8] sky130_fd_sc_hd__clkbuf_4
Xoutput86 net86 VGND VGND VPWR VPWR D[27] sky130_fd_sc_hd__clkbuf_4
XFILLER_0_41_237 VGND VGND VPWR VPWR sky130_ef_sc_hd__decap_12
XTAP_123 VGND VPWR sky130_fd_sc_hd__tapvpwrvgnd_1
XTAP_112 VGND VPWR sky130_fd_sc_hd__tapvpwrvgnd_1
XTAP_101 VGND VPWR sky130_fd_sc_hd__tapvpwrvgnd_1
XTAP_134 VGND VPWR sky130_fd_sc_hd__tapvpwrvgnd_1
XTAP_145 VGND VPWR sky130_fd_sc_hd__tapvpwrvgnd_1
XTAP_156 VGND VPWR sky130_fd_sc_hd__tapvpwrvgnd_1
XTAP_167 VGND VPWR sky130_fd_sc_hd__tapvpwrvgnd_1
XTAP_178 VGND VPWR sky130_fd_sc_hd__tapvpwrvgnd_1
XTAP_189 VGND VPWR sky130_fd_sc_hd__tapvpwrvgnd_1
XFILLER_0_27_61 VGND VGND VPWR VPWR sky130_fd_sc_hd__fill_2
XFILLER_0_17_212 VGND VGND VPWR VPWR sky130_fd_sc_hd__decap_3
XFILLER_0_17_234 VGND VGND VPWR VPWR sky130_ef_sc_hd__decap_12
XFILLER_0_32_226 VGND VGND VPWR VPWR sky130_ef_sc_hd__decap_12
XFILLER_0_7_82 VGND VGND VPWR VPWR sky130_fd_sc_hd__fill_1
Xclkbuf_3_6__f_clk clknet_0_clk VGND VGND VPWR VPWR clknet_3_6__leaf_clk sky130_fd_sc_hd__clkbuf_16
XFILLER_0_23_215 VGND VGND VPWR VPWR sky130_fd_sc_hd__decap_8
X_0984_ net6 net149 _0459_ VGND VGND VPWR VPWR _0461_ sky130_fd_sc_hd__mux2_1
XFILLER_0_13_30 VGND VGND VPWR VPWR sky130_fd_sc_hd__fill_1
XFILLER_0_14_248 VGND VGND VPWR VPWR sky130_fd_sc_hd__decap_4
XFILLER_0_14_259 VGND VGND VPWR VPWR sky130_fd_sc_hd__fill_1
XFILLER_0_34_29 VGND VGND VPWR VPWR sky130_ef_sc_hd__decap_12
X_1321_ clknet_3_2__leaf_clk reg32_work.bit26.BitData _0063_ VGND VGND VPWR VPWR net117
+ sky130_fd_sc_hd__dfrtp_2
X_1252_ _0140_ _0141_ VGND VGND VPWR VPWR _0151_ sky130_fd_sc_hd__and2b_1
X_1183_ _0572_ VGND VGND VPWR VPWR _0067_ sky130_fd_sc_hd__clkbuf_1
XFILLER_0_40_83 VGND VGND VPWR VPWR sky130_fd_sc_hd__fill_1
X_0967_ net29 net94 _0448_ VGND VGND VPWR VPWR _0452_ sky130_fd_sc_hd__mux2_1
X_0898_ reg32_denom.bit18.BitOut _0289_ _0401_ VGND VGND VPWR VPWR _0402_ sky130_fd_sc_hd__o21ba_1
X_0752_ net100 VGND VGND VPWR VPWR _0275_ sky130_fd_sc_hd__inv_2
X_0821_ _0229_ _0233_ _0227_ VGND VGND VPWR VPWR _0341_ sky130_fd_sc_hd__o21ai_1
X_0683_ net109 reg32_denom.bit20.BitOut VGND VGND VPWR VPWR _0206_ sky130_fd_sc_hd__or2b_1
X_1304_ clknet_3_7__leaf_clk reg32_work.bit9.BitData _0046_ VGND VGND VPWR VPWR net130
+ sky130_fd_sc_hd__dfrtp_2
XFILLER_0_36_7 VGND VGND VPWR VPWR sky130_fd_sc_hd__fill_1
X_1235_ _0142_ VGND VGND VPWR VPWR _0090_ sky130_fd_sc_hd__clkbuf_1
X_1166_ _0489_ VGND VGND VPWR VPWR _0563_ sky130_fd_sc_hd__buf_2
X_1097_ _0525_ VGND VGND VPWR VPWR _0028_ sky130_fd_sc_hd__clkbuf_1
XFILLER_0_19_137 VGND VGND VPWR VPWR sky130_fd_sc_hd__decap_3
XFILLER_0_42_195 VGND VGND VPWR VPWR sky130_fd_sc_hd__fill_1
X_1020_ net35 net34 net44 net63 VGND VGND VPWR VPWR _0479_ sky130_fd_sc_hd__or4_1
X_0735_ _0256_ _0257_ VGND VGND VPWR VPWR _0258_ sky130_fd_sc_hd__nand2_1
X_0804_ reg32_denom.bit31.BitOut _0324_ _0319_ VGND VGND VPWR VPWR _0327_ sky130_fd_sc_hd__a21bo_1
X_0597_ _0156_ VGND VGND VPWR VPWR _0132_ sky130_fd_sc_hd__clkbuf_1
X_0666_ cycle_reg.bit0.BitOut cycle_reg.bit1.BitOut _0192_ VGND VGND VPWR VPWR _0193_
+ sky130_fd_sc_hd__o21ai_1
X_1218_ _0587_ _0588_ VGND VGND VPWR VPWR _0592_ sky130_fd_sc_hd__and2b_1
X_1149_ _0554_ VGND VGND VPWR VPWR _0051_ sky130_fd_sc_hd__clkbuf_1
XFILLER_0_15_195 VGND VGND VPWR VPWR sky130_fd_sc_hd__decap_8
Xhold31 reg32_denom.bit26.BitOut VGND VGND VPWR VPWR net164 sky130_fd_sc_hd__dlygate4sd3_1
Xhold20 net105 VGND VGND VPWR VPWR net153 sky130_fd_sc_hd__dlygate4sd3_1
XFILLER_0_42_29 VGND VGND VPWR VPWR sky130_ef_sc_hd__decap_12
XFILLER_0_38_265 VGND VGND VPWR VPWR sky130_fd_sc_hd__fill_1
XFILLER_0_38_232 VGND VGND VPWR VPWR sky130_ef_sc_hd__decap_12
XFILLER_0_38_210 VGND VGND VPWR VPWR sky130_fd_sc_hd__fill_1
XFILLER_0_6_29 VGND VGND VPWR VPWR sky130_ef_sc_hd__decap_12
XFILLER_0_13_9 VGND VGND VPWR VPWR sky130_fd_sc_hd__decap_6
XFILLER_0_16_85 VGND VGND VPWR VPWR sky130_fd_sc_hd__fill_2
X_1003_ _0470_ VGND VGND VPWR VPWR reg32_result.bit23.BitData sky130_fd_sc_hd__clkbuf_1
X_0718_ reg32_denom.bit6.BitOut net126 VGND VGND VPWR VPWR _0241_ sky130_fd_sc_hd__and2b_1
XFILLER_0_12_187 VGND VGND VPWR VPWR sky130_fd_sc_hd__decap_6
X_0649_ net60 net163 _0182_ VGND VGND VPWR VPWR _0184_ sky130_fd_sc_hd__mux2_1
Xoutput76 net76 VGND VGND VPWR VPWR D[18] sky130_fd_sc_hd__clkbuf_4
Xoutput87 net87 VGND VGND VPWR VPWR D[28] sky130_fd_sc_hd__buf_2
Xoutput98 net98 VGND VGND VPWR VPWR D[9] sky130_fd_sc_hd__clkbuf_4
XFILLER_0_41_249 VGND VGND VPWR VPWR sky130_ef_sc_hd__decap_12
XTAP_124 VGND VPWR sky130_fd_sc_hd__tapvpwrvgnd_1
XTAP_113 VGND VPWR sky130_fd_sc_hd__tapvpwrvgnd_1
XTAP_102 VGND VPWR sky130_fd_sc_hd__tapvpwrvgnd_1
XTAP_135 VGND VPWR sky130_fd_sc_hd__tapvpwrvgnd_1
XTAP_146 VGND VPWR sky130_fd_sc_hd__tapvpwrvgnd_1
XTAP_157 VGND VPWR sky130_fd_sc_hd__tapvpwrvgnd_1
XTAP_168 VGND VPWR sky130_fd_sc_hd__tapvpwrvgnd_1
XTAP_179 VGND VPWR sky130_fd_sc_hd__tapvpwrvgnd_1
XFILLER_0_32_238 VGND VGND VPWR VPWR sky130_fd_sc_hd__decap_4
XFILLER_0_17_246 VGND VGND VPWR VPWR sky130_fd_sc_hd__decap_6
XFILLER_0_7_61 VGND VGND VPWR VPWR sky130_fd_sc_hd__fill_1
X_0983_ _0460_ VGND VGND VPWR VPWR reg32_result.bit13.BitData sky130_fd_sc_hd__clkbuf_1
XFILLER_0_9_221 VGND VGND VPWR VPWR sky130_fd_sc_hd__decap_3
XFILLER_0_20_219 VGND VGND VPWR VPWR sky130_fd_sc_hd__fill_1
X_1320_ clknet_3_2__leaf_clk reg32_work.bit25.BitData _0062_ VGND VGND VPWR VPWR net116
+ sky130_fd_sc_hd__dfrtp_2
X_1182_ _0563_ _0564_ VGND VGND VPWR VPWR _0572_ sky130_fd_sc_hd__and2b_1
X_1251_ _0150_ VGND VGND VPWR VPWR _0098_ sky130_fd_sc_hd__clkbuf_1
XFILLER_0_24_41 VGND VGND VPWR VPWR sky130_fd_sc_hd__fill_1
XFILLER_0_24_85 VGND VGND VPWR VPWR sky130_fd_sc_hd__decap_4
XFILLER_0_40_73 VGND VGND VPWR VPWR sky130_fd_sc_hd__decap_3
XFILLER_0_6_235 VGND VGND VPWR VPWR sky130_ef_sc_hd__decap_12
X_0966_ _0451_ VGND VGND VPWR VPWR reg32_result.bit5.BitData sky130_fd_sc_hd__clkbuf_1
X_0897_ _0398_ _0217_ VGND VGND VPWR VPWR _0401_ sky130_fd_sc_hd__and2b_1
XFILLER_0_43_119 VGND VGND VPWR VPWR sky130_ef_sc_hd__decap_12
X_0751_ _0267_ _0270_ _0273_ VGND VGND VPWR VPWR _0274_ sky130_fd_sc_hd__or3_1
XFILLER_0_9_29 VGND VGND VPWR VPWR sky130_ef_sc_hd__decap_12
X_0820_ net148 _0337_ _0340_ _0190_ VGND VGND VPWR VPWR reg32_work.bit2.BitData sky130_fd_sc_hd__o211a_1
X_1303_ clknet_3_7__leaf_clk reg32_work.bit8.BitData _0045_ VGND VGND VPWR VPWR net129
+ sky130_fd_sc_hd__dfrtp_1
X_0682_ reg32_denom.bit20.BitOut net109 VGND VGND VPWR VPWR _0205_ sky130_fd_sc_hd__or2b_2
X_1096_ _0515_ _0516_ VGND VGND VPWR VPWR _0525_ sky130_fd_sc_hd__and2b_1
X_1165_ _0562_ VGND VGND VPWR VPWR _0059_ sky130_fd_sc_hd__clkbuf_1
X_1234_ _0140_ _0141_ VGND VGND VPWR VPWR _0142_ sky130_fd_sc_hd__and2b_1
X_0949_ _0440_ _0441_ _0347_ VGND VGND VPWR VPWR _0442_ sky130_fd_sc_hd__o21ai_1
XFILLER_0_33_130 VGND VGND VPWR VPWR sky130_ef_sc_hd__decap_12
XFILLER_0_18_171 VGND VGND VPWR VPWR sky130_fd_sc_hd__fill_2
XFILLER_0_21_31 VGND VGND VPWR VPWR sky130_fd_sc_hd__decap_8
X_0803_ _0315_ _0325_ _0314_ VGND VGND VPWR VPWR _0326_ sky130_fd_sc_hd__a21o_1
X_0665_ _0191_ VGND VGND VPWR VPWR _0192_ sky130_fd_sc_hd__clkbuf_4
XFILLER_0_24_141 VGND VGND VPWR VPWR sky130_fd_sc_hd__decap_8
X_0734_ reg32_denom.bit13.BitOut net102 VGND VGND VPWR VPWR _0257_ sky130_fd_sc_hd__or2b_1
X_0596_ net56 reg32_denom.bit30.BitOut _0154_ VGND VGND VPWR VPWR _0156_ sky130_fd_sc_hd__mux2_1
X_1217_ _0591_ VGND VGND VPWR VPWR _0082_ sky130_fd_sc_hd__clkbuf_1
X_1148_ _0551_ _0552_ VGND VGND VPWR VPWR _0554_ sky130_fd_sc_hd__and2b_1
X_1079_ _0491_ VGND VGND VPWR VPWR _0516_ sky130_fd_sc_hd__buf_2
Xhold32 net78 VGND VGND VPWR VPWR net165 sky130_fd_sc_hd__dlygate4sd3_1
Xhold10 net106 VGND VGND VPWR VPWR net143 sky130_fd_sc_hd__dlygate4sd3_1
Xhold21 reg32_denom.bit1.BitOut VGND VGND VPWR VPWR net154 sky130_fd_sc_hd__dlygate4sd3_1
XFILLER_0_38_244 VGND VGND VPWR VPWR sky130_fd_sc_hd__decap_8
XFILLER_0_21_177 VGND VGND VPWR VPWR sky130_fd_sc_hd__fill_1
X_1002_ net16 net81 _0191_ VGND VGND VPWR VPWR _0470_ sky130_fd_sc_hd__mux2_1
XFILLER_0_29_222 VGND VGND VPWR VPWR sky130_fd_sc_hd__fill_2
XFILLER_0_44_203 VGND VGND VPWR VPWR sky130_fd_sc_hd__decap_3
XFILLER_0_32_74 VGND VGND VPWR VPWR sky130_fd_sc_hd__decap_4
X_0648_ _0183_ VGND VGND VPWR VPWR _0108_ sky130_fd_sc_hd__clkbuf_1
X_0717_ _0236_ _0239_ VGND VGND VPWR VPWR _0240_ sky130_fd_sc_hd__and2_1
XFILLER_0_12_177 VGND VGND VPWR VPWR sky130_fd_sc_hd__fill_1
XFILLER_0_35_225 VGND VGND VPWR VPWR sky130_ef_sc_hd__decap_12
Xoutput77 net77 VGND VGND VPWR VPWR D[19] sky130_fd_sc_hd__clkbuf_4
Xoutput88 net88 VGND VGND VPWR VPWR D[29] sky130_fd_sc_hd__clkbuf_4
Xoutput99 net99 VGND VGND VPWR VPWR R[0] sky130_fd_sc_hd__clkbuf_4
XTAP_114 VGND VPWR sky130_fd_sc_hd__tapvpwrvgnd_1
XTAP_103 VGND VPWR sky130_fd_sc_hd__tapvpwrvgnd_1
XTAP_125 VGND VPWR sky130_fd_sc_hd__tapvpwrvgnd_1
XTAP_136 VGND VPWR sky130_fd_sc_hd__tapvpwrvgnd_1
XTAP_147 VGND VPWR sky130_fd_sc_hd__tapvpwrvgnd_1
XTAP_158 VGND VPWR sky130_fd_sc_hd__tapvpwrvgnd_1
XTAP_169 VGND VPWR sky130_fd_sc_hd__tapvpwrvgnd_1
XFILLER_0_32_206 VGND VGND VPWR VPWR sky130_fd_sc_hd__decap_4
XFILLER_0_40_261 VGND VGND VPWR VPWR sky130_fd_sc_hd__fill_1
XFILLER_0_23_206 VGND VGND VPWR VPWR sky130_fd_sc_hd__decap_6
X_0982_ net5 net70 _0459_ VGND VGND VPWR VPWR _0460_ sky130_fd_sc_hd__mux2_1
XFILLER_0_13_65 VGND VGND VPWR VPWR sky130_fd_sc_hd__fill_2
XFILLER_0_13_76 VGND VGND VPWR VPWR sky130_fd_sc_hd__decap_6
XFILLER_0_14_206 VGND VGND VPWR VPWR sky130_fd_sc_hd__decap_3
XFILLER_0_22_250 VGND VGND VPWR VPWR sky130_fd_sc_hd__fill_2
X_1250_ _0140_ _0141_ VGND VGND VPWR VPWR _0150_ sky130_fd_sc_hd__and2b_1
X_1181_ _0571_ VGND VGND VPWR VPWR _0066_ sky130_fd_sc_hd__clkbuf_1
XFILLER_0_6_203 VGND VGND VPWR VPWR sky130_fd_sc_hd__decap_6
XFILLER_0_40_85 VGND VGND VPWR VPWR sky130_fd_sc_hd__decap_8
XFILLER_0_40_41 VGND VGND VPWR VPWR sky130_ef_sc_hd__decap_12
XFILLER_0_6_247 VGND VGND VPWR VPWR sky130_fd_sc_hd__decap_4
X_0896_ net132 _0400_ VGND VGND VPWR VPWR reg32_work.bit18.BitData sky130_fd_sc_hd__nor2_1
X_0965_ net28 net93 _0448_ VGND VGND VPWR VPWR _0451_ sky130_fd_sc_hd__mux2_1
XFILLER_0_4_85 VGND VGND VPWR VPWR sky130_fd_sc_hd__decap_6
XFILLER_0_4_41 VGND VGND VPWR VPWR sky130_ef_sc_hd__decap_12
XFILLER_0_10_253 VGND VGND VPWR VPWR sky130_fd_sc_hd__decap_6
XFILLER_0_28_106 VGND VGND VPWR VPWR sky130_fd_sc_hd__decap_8
XFILLER_0_28_139 VGND VGND VPWR VPWR sky130_fd_sc_hd__fill_1
X_0750_ _0271_ _0272_ VGND VGND VPWR VPWR _0273_ sky130_fd_sc_hd__or2b_1
XFILLER_0_9_19 VGND VGND VPWR VPWR sky130_fd_sc_hd__fill_2
X_0681_ _0202_ _0203_ VGND VGND VPWR VPWR _0204_ sky130_fd_sc_hd__or2b_1
X_1302_ clknet_3_5__leaf_clk reg32_work.bit7.BitData _0044_ VGND VGND VPWR VPWR net128
+ sky130_fd_sc_hd__dfrtp_1
XFILLER_0_19_42 VGND VGND VPWR VPWR sky130_ef_sc_hd__decap_12
X_1233_ net66 VGND VGND VPWR VPWR _0141_ sky130_fd_sc_hd__clkbuf_2
XFILLER_0_35_41 VGND VGND VPWR VPWR sky130_fd_sc_hd__decap_3
X_1095_ _0524_ VGND VGND VPWR VPWR _0027_ sky130_fd_sc_hd__clkbuf_1
X_1164_ _0551_ _0552_ VGND VGND VPWR VPWR _0562_ sky130_fd_sc_hd__and2b_1
X_0948_ _0318_ _0326_ _0321_ VGND VGND VPWR VPWR _0441_ sky130_fd_sc_hd__a21oi_2
X_0879_ reg32_denom.bit14.BitOut net103 VGND VGND VPWR VPWR _0387_ sky130_fd_sc_hd__or2b_1
XFILLER_0_33_142 VGND VGND VPWR VPWR sky130_ef_sc_hd__decap_12
XFILLER_0_0_209 VGND VGND VPWR VPWR sky130_fd_sc_hd__decap_8
X_0802_ reg32_denom.bit28.BitOut net118 VGND VGND VPWR VPWR _0325_ sky130_fd_sc_hd__or2b_1
X_0733_ net102 reg32_denom.bit13.BitOut VGND VGND VPWR VPWR _0256_ sky130_fd_sc_hd__or2b_1
XFILLER_0_24_131 VGND VGND VPWR VPWR sky130_fd_sc_hd__decap_8
X_0664_ u1.q VGND VGND VPWR VPWR _0191_ sky130_fd_sc_hd__clkbuf_4
X_1216_ _0587_ _0588_ VGND VGND VPWR VPWR _0591_ sky130_fd_sc_hd__and2b_1
XFILLER_0_34_6 VGND VGND VPWR VPWR sky130_fd_sc_hd__decap_6
X_0595_ _0155_ VGND VGND VPWR VPWR _0133_ sky130_fd_sc_hd__clkbuf_1
X_1147_ _0553_ VGND VGND VPWR VPWR _0050_ sky130_fd_sc_hd__clkbuf_1
X_1078_ _0489_ VGND VGND VPWR VPWR _0515_ sky130_fd_sc_hd__buf_2
XFILLER_0_15_131 VGND VGND VPWR VPWR sky130_fd_sc_hd__decap_4
Xhold11 net129 VGND VGND VPWR VPWR net144 sky130_fd_sc_hd__dlygate4sd3_1
Xhold22 reg32_denom.bit27.BitOut VGND VGND VPWR VPWR net155 sky130_fd_sc_hd__dlygate4sd3_1
Xhold33 reg32_denom.bit20.BitOut VGND VGND VPWR VPWR net166 sky130_fd_sc_hd__dlygate4sd3_1
X_1001_ _0469_ VGND VGND VPWR VPWR reg32_result.bit22.BitData sky130_fd_sc_hd__clkbuf_1
XFILLER_0_29_234 VGND VGND VPWR VPWR sky130_fd_sc_hd__decap_4
X_0647_ net61 net160 _0182_ VGND VGND VPWR VPWR _0183_ sky130_fd_sc_hd__mux2_1
X_0716_ _0237_ _0238_ VGND VGND VPWR VPWR _0239_ sky130_fd_sc_hd__nor2_1
XFILLER_0_12_134 VGND VGND VPWR VPWR sky130_fd_sc_hd__decap_6
XFILLER_0_32_3 VGND VGND VPWR VPWR sky130_fd_sc_hd__decap_4
XFILLER_0_35_237 VGND VGND VPWR VPWR sky130_fd_sc_hd__decap_6
XFILLER_0_35_215 VGND VGND VPWR VPWR sky130_fd_sc_hd__decap_6
Xoutput67 net67 VGND VGND VPWR VPWR D[0] sky130_fd_sc_hd__clkbuf_4
Xoutput78 net78 VGND VGND VPWR VPWR D[1] sky130_fd_sc_hd__buf_2
Xoutput89 net89 VGND VGND VPWR VPWR D[2] sky130_fd_sc_hd__clkbuf_4
XTAP_126 VGND VPWR sky130_fd_sc_hd__tapvpwrvgnd_1
XTAP_115 VGND VPWR sky130_fd_sc_hd__tapvpwrvgnd_1
XTAP_104 VGND VPWR sky130_fd_sc_hd__tapvpwrvgnd_1
XTAP_137 VGND VPWR sky130_fd_sc_hd__tapvpwrvgnd_1
XTAP_148 VGND VPWR sky130_fd_sc_hd__tapvpwrvgnd_1
XTAP_159 VGND VPWR sky130_fd_sc_hd__tapvpwrvgnd_1
XFILLER_0_17_204 VGND VGND VPWR VPWR sky130_fd_sc_hd__decap_8
XFILLER_0_4_197 VGND VGND VPWR VPWR sky130_ef_sc_hd__decap_12
X_0981_ u1.q VGND VGND VPWR VPWR _0459_ sky130_fd_sc_hd__buf_4
XFILLER_0_1_101 VGND VGND VPWR VPWR sky130_fd_sc_hd__decap_8
XFILLER_0_1_178 VGND VGND VPWR VPWR sky130_ef_sc_hd__decap_12
XFILLER_0_9_234 VGND VGND VPWR VPWR sky130_ef_sc_hd__decap_12
X_1180_ _0563_ _0564_ VGND VGND VPWR VPWR _0571_ sky130_fd_sc_hd__and2b_1
XFILLER_0_40_53 VGND VGND VPWR VPWR sky130_ef_sc_hd__decap_12
X_0964_ _0450_ VGND VGND VPWR VPWR reg32_result.bit4.BitData sky130_fd_sc_hd__clkbuf_1
XFILLER_0_24_65 VGND VGND VPWR VPWR sky130_ef_sc_hd__decap_12
X_0895_ _0289_ _0399_ _0329_ VGND VGND VPWR VPWR _0400_ sky130_fd_sc_hd__mux2_1
XFILLER_0_4_53 VGND VGND VPWR VPWR sky130_ef_sc_hd__decap_12
X_0680_ reg32_denom.bit21.BitOut net111 VGND VGND VPWR VPWR _0203_ sky130_fd_sc_hd__or2b_1
X_1301_ clknet_3_5__leaf_clk reg32_work.bit6.BitData _0043_ VGND VGND VPWR VPWR net127
+ sky130_fd_sc_hd__dfrtp_4
X_1232_ net65 VGND VGND VPWR VPWR _0140_ sky130_fd_sc_hd__clkbuf_2
XFILLER_0_19_54 VGND VGND VPWR VPWR sky130_fd_sc_hd__fill_2
XFILLER_0_19_65 VGND VGND VPWR VPWR sky130_fd_sc_hd__fill_1
X_1094_ _0515_ _0516_ VGND VGND VPWR VPWR _0524_ sky130_fd_sc_hd__and2b_1
X_1163_ _0561_ VGND VGND VPWR VPWR _0058_ sky130_fd_sc_hd__clkbuf_1
XFILLER_0_19_107 VGND VGND VPWR VPWR sky130_fd_sc_hd__fill_1
XFILLER_0_29_9 VGND VGND VPWR VPWR sky130_fd_sc_hd__fill_2
XFILLER_0_42_132 VGND VGND VPWR VPWR sky130_fd_sc_hd__decap_4
X_0947_ _0318_ _0321_ _0326_ VGND VGND VPWR VPWR _0440_ sky130_fd_sc_hd__and3_1
XFILLER_0_27_162 VGND VGND VPWR VPWR sky130_fd_sc_hd__decap_6
XFILLER_0_27_173 VGND VGND VPWR VPWR sky130_ef_sc_hd__decap_12
X_0878_ _0386_ VGND VGND VPWR VPWR reg32_work.bit14.BitData sky130_fd_sc_hd__clkbuf_1
XFILLER_0_18_151 VGND VGND VPWR VPWR sky130_ef_sc_hd__decap_12
XFILLER_0_33_187 VGND VGND VPWR VPWR sky130_fd_sc_hd__fill_1
XFILLER_0_33_165 VGND VGND VPWR VPWR sky130_fd_sc_hd__decap_3
XFILLER_0_33_154 VGND VGND VPWR VPWR sky130_fd_sc_hd__decap_6
X_0801_ net122 VGND VGND VPWR VPWR _0324_ sky130_fd_sc_hd__inv_2
X_0594_ net64 reg32_denom.bit9.BitOut _0154_ VGND VGND VPWR VPWR _0155_ sky130_fd_sc_hd__mux2_1
X_0663_ u1.q VGND VGND VPWR VPWR net132 sky130_fd_sc_hd__inv_2
X_0732_ reg32_denom.bit15.BitOut net104 VGND VGND VPWR VPWR _0255_ sky130_fd_sc_hd__xor2_2
X_1215_ _0590_ VGND VGND VPWR VPWR _0081_ sky130_fd_sc_hd__clkbuf_1
X_1146_ _0551_ _0552_ VGND VGND VPWR VPWR _0553_ sky130_fd_sc_hd__and2b_1
X_1077_ _0514_ VGND VGND VPWR VPWR _0019_ sky130_fd_sc_hd__clkbuf_1
XFILLER_0_15_165 VGND VGND VPWR VPWR sky130_fd_sc_hd__decap_3
Xhold12 net120 VGND VGND VPWR VPWR net145 sky130_fd_sc_hd__dlygate4sd3_1
Xhold23 reg32_denom.bit0.BitOut VGND VGND VPWR VPWR net156 sky130_fd_sc_hd__dlygate4sd3_1