*SPEF "ieee 1481-1999"
*DESIGN "divider"
*DATE "11:11:11 Fri 11 11, 1111"
*VENDOR "OpenRCX"
*PROGRAM "Parallel Extraction"
*VERSION "1.0"
*DESIGN_FLOW "NAME_SCOPE LOCAL" "PIN_CAP NONE"
*DIVIDER /
*DELIMITER :
*BUS_DELIMITER []
*T_UNIT 1 NS
*C_UNIT 1 PF
*R_UNIT 1 OHM
*L_UNIT 1 HENRY

*NAME_MAP
*1 A[0]
*2 A[10]
*3 A[11]
*4 A[12]
*5 A[13]
*6 A[14]
*7 A[15]
*8 A[16]
*9 A[17]
*10 A[18]
*11 A[19]
*12 A[1]
*13 A[20]
*14 A[21]
*15 A[22]
*16 A[23]
*17 A[24]
*18 A[25]
*19 A[26]
*20 A[27]
*21 A[28]
*22 A[29]
*23 A[2]
*24 A[30]
*25 A[31]
*26 A[3]
*27 A[4]
*28 A[5]
*29 A[6]
*30 A[7]
*31 A[8]
*32 A[9]
*33 B[0]
*34 B[10]
*35 B[11]
*36 B[12]
*37 B[13]
*38 B[14]
*39 B[15]
*40 B[16]
*41 B[17]
*42 B[18]
*43 B[19]
*44 B[1]
*45 B[20]
*46 B[21]
*47 B[22]
*48 B[23]
*49 B[24]
*50 B[25]
*51 B[26]
*52 B[27]
*53 B[28]
*54 B[29]
*55 B[2]
*56 B[30]
*57 B[31]
*58 B[3]
*59 B[4]
*60 B[5]
*61 B[6]
*62 B[7]
*63 B[8]
*64 B[9]
*65 D[0]
*66 D[10]
*67 D[11]
*68 D[12]
*69 D[13]
*70 D[14]
*71 D[15]
*72 D[16]
*73 D[17]
*74 D[18]
*75 D[19]
*76 D[1]
*77 D[20]
*78 D[21]
*79 D[22]
*80 D[23]
*81 D[24]
*82 D[25]
*83 D[26]
*84 D[27]
*85 D[28]
*86 D[29]
*87 D[2]
*88 D[30]
*89 D[31]
*90 D[3]
*91 D[4]
*92 D[5]
*93 D[6]
*94 D[7]
*95 D[8]
*96 D[9]
*97 R[0]
*98 R[10]
*99 R[11]
*100 R[12]
*101 R[13]
*102 R[14]
*103 R[15]
*104 R[16]
*105 R[17]
*106 R[18]
*107 R[19]
*108 R[1]
*109 R[20]
*110 R[21]
*111 R[22]
*112 R[23]
*113 R[24]
*114 R[25]
*115 R[26]
*116 R[27]
*117 R[28]
*118 R[29]
*119 R[2]
*120 R[30]
*121 R[31]
*122 R[3]
*123 R[4]
*124 R[5]
*125 R[6]
*126 R[7]
*127 R[8]
*128 R[9]
*131 clk
*132 err
*133 ok
*134 reset
*135 start
*136 _0000_
*137 _0001_
*138 _0002_
*139 _0003_
*140 _0004_
*141 _0005_
*142 _0006_
*143 _0007_
*144 _0008_
*145 _0009_
*146 _0010_
*147 _0011_
*148 _0012_
*149 _0013_
*150 _0014_
*151 _0015_
*152 _0016_
*153 _0017_
*154 _0018_
*155 _0019_
*156 _0020_
*157 _0021_
*158 _0022_
*159 _0023_
*160 _0024_
*161 _0025_
*162 _0026_
*163 _0027_
*164 _0028_
*165 _0029_
*166 _0030_
*167 _0031_
*168 _0032_
*169 _0033_
*170 _0034_
*171 _0035_
*172 _0036_
*173 _0037_
*174 _0038_
*175 _0039_
*176 _0040_
*177 _0041_
*178 _0042_
*179 _0043_
*180 _0044_
*181 _0045_
*182 _0046_
*183 _0047_
*184 _0048_
*185 _0049_
*186 _0050_
*187 _0051_
*188 _0052_
*189 _0053_
*190 _0054_
*191 _0055_
*192 _0056_
*193 _0057_
*194 _0058_
*195 _0059_
*196 _0060_
*197 _0061_
*198 _0062_
*199 _0063_
*200 _0064_
*201 _0065_
*202 _0066_
*203 _0067_
*204 _0068_
*205 _0069_
*206 _0070_
*207 _0071_
*208 _0072_
*209 _0073_
*210 _0074_
*211 _0075_
*212 _0076_
*213 _0077_
*214 _0078_
*215 _0079_
*216 _0080_
*217 _0081_
*218 _0082_
*219 _0083_
*220 _0084_
*221 _0085_
*222 _0086_
*223 _0087_
*224 _0088_
*225 _0089_
*226 _0090_
*227 _0091_
*228 _0092_
*229 _0093_
*230 _0094_
*231 _0095_
*232 _0096_
*233 _0097_
*234 _0098_
*235 _0099_
*236 _0100_
*237 _0101_
*238 _0102_
*239 _0103_
*240 _0104_
*241 _0105_
*242 _0106_
*243 _0107_
*244 _0108_
*245 _0109_
*246 _0110_
*247 _0111_
*248 _0112_
*249 _0113_
*250 _0114_
*251 _0115_
*252 _0116_
*253 _0117_
*254 _0118_
*255 _0119_
*256 _0120_
*257 _0121_
*258 _0122_
*259 _0123_
*260 _0124_
*261 _0125_
*262 _0126_
*263 _0127_
*264 _0128_
*265 _0129_
*266 _0130_
*267 _0131_
*268 _0132_
*269 _0133_
*270 _0134_
*271 _0135_
*272 _0136_
*273 _0137_
*274 _0138_
*275 _0139_
*276 _0140_
*277 _0141_
*278 _0142_
*279 _0143_
*280 _0144_
*281 _0145_
*282 _0146_
*283 _0147_
*284 _0148_
*285 _0149_
*286 _0150_
*287 _0151_
*288 _0152_
*289 _0153_
*290 _0154_
*291 _0155_
*292 _0156_
*293 _0157_
*294 _0158_
*295 _0159_
*296 _0160_
*297 _0161_
*298 _0162_
*299 _0163_
*300 _0164_
*301 _0165_
*302 _0166_
*303 _0167_
*304 _0168_
*305 _0169_
*306 _0170_
*307 _0171_
*308 _0172_
*309 _0173_
*310 _0174_
*311 _0175_
*312 _0176_
*313 _0177_
*314 _0178_
*315 _0179_
*316 _0180_
*317 _0181_
*318 _0182_
*319 _0183_
*320 _0184_
*321 _0185_
*322 _0186_
*323 _0187_
*324 _0188_
*325 _0189_
*326 _0190_
*327 _0191_
*328 _0192_
*329 _0193_
*330 _0194_
*331 _0195_
*332 _0196_
*333 _0197_
*334 _0198_
*335 _0199_
*336 _0200_
*337 _0201_
*338 _0202_
*339 _0203_
*340 _0204_
*341 _0205_
*342 _0206_
*343 _0207_
*344 _0208_
*345 _0209_
*346 _0210_
*347 _0211_
*348 _0212_
*349 _0213_
*350 _0214_
*351 _0215_
*352 _0216_
*353 _0217_
*354 _0218_
*355 _0219_
*356 _0220_
*357 _0221_
*358 _0222_
*359 _0223_
*360 _0224_
*361 _0225_
*362 _0226_
*363 _0227_
*364 _0228_
*365 _0229_
*366 _0230_
*367 _0231_
*368 _0232_
*369 _0233_
*370 _0234_
*371 _0235_
*372 _0236_
*373 _0237_
*374 _0238_
*375 _0239_
*376 _0240_
*377 _0241_
*378 _0242_
*379 _0243_
*380 _0244_
*381 _0245_
*382 _0246_
*383 _0247_
*384 _0248_
*385 _0249_
*386 _0250_
*387 _0251_
*388 _0252_
*389 _0253_
*390 _0254_
*391 _0255_
*392 _0256_
*393 _0257_
*394 _0258_
*395 _0259_
*396 _0260_
*397 _0261_
*398 _0262_
*399 _0263_
*400 _0264_
*401 _0265_
*402 _0266_
*403 _0267_
*404 _0268_
*405 _0269_
*406 _0270_
*407 _0271_
*408 _0272_
*409 _0273_
*410 _0274_
*411 _0275_
*412 _0276_
*413 _0277_
*414 _0278_
*415 _0279_
*416 _0280_
*417 _0281_
*418 _0282_
*419 _0283_
*420 _0284_
*421 _0285_
*422 _0286_
*423 _0287_
*424 _0288_
*425 _0289_
*426 _0290_
*427 _0291_
*428 _0292_
*429 _0293_
*430 _0294_
*431 _0295_
*432 _0296_
*433 _0297_
*434 _0298_
*435 _0299_
*436 _0300_
*437 _0301_
*438 _0302_
*439 _0303_
*440 _0304_
*441 _0305_
*442 _0306_
*443 _0307_
*444 _0308_
*445 _0309_
*446 _0310_
*447 _0311_
*448 _0312_
*449 _0313_
*450 _0314_
*451 _0315_
*452 _0316_
*453 _0317_
*454 _0318_
*455 _0319_
*456 _0320_
*457 _0321_
*458 _0322_
*459 _0323_
*460 _0324_
*461 _0325_
*462 _0326_
*463 _0327_
*464 _0328_
*465 _0329_
*466 _0330_
*467 _0331_
*468 _0332_
*469 _0333_
*470 _0334_
*471 _0335_
*472 _0336_
*473 _0337_
*474 _0338_
*475 _0339_
*476 _0340_
*477 _0341_
*478 _0342_
*479 _0343_
*480 _0344_
*481 _0345_
*482 _0346_
*483 _0347_
*484 _0348_
*485 _0349_
*486 _0350_
*487 _0351_
*488 _0352_
*489 _0353_
*490 _0354_
*491 _0355_
*492 _0356_
*493 _0357_
*494 _0358_
*495 _0359_
*496 _0360_
*497 _0361_
*498 _0362_
*499 _0363_
*500 _0364_
*501 _0365_
*502 _0366_
*503 _0367_
*504 _0368_
*505 _0369_
*506 _0370_
*507 _0371_
*508 _0372_
*509 _0373_
*510 _0374_
*511 _0375_
*512 _0376_
*513 _0377_
*514 _0378_
*515 _0379_
*516 _0380_
*517 _0381_
*518 _0382_
*519 _0383_
*520 _0384_
*521 _0385_
*522 _0386_
*523 _0387_
*524 _0388_
*525 _0389_
*526 _0390_
*527 _0391_
*528 _0392_
*529 _0393_
*530 _0394_
*531 _0395_
*532 _0396_
*533 _0397_
*534 _0398_
*535 _0399_
*536 _0400_
*537 _0401_
*538 _0402_
*539 _0403_
*540 _0404_
*541 _0405_
*542 _0406_
*543 _0407_
*544 _0408_
*545 _0409_
*546 _0410_
*547 _0411_
*548 _0412_
*549 _0413_
*550 _0414_
*551 _0415_
*552 _0416_
*553 _0417_
*554 _0418_
*555 _0419_
*556 _0420_
*557 _0421_
*558 _0422_
*559 _0423_
*560 _0424_
*561 _0425_
*562 _0426_
*563 _0427_
*564 _0428_
*565 _0429_
*566 _0430_
*567 _0431_
*568 _0432_
*569 _0433_
*570 _0434_
*571 _0435_
*572 _0436_
*573 _0437_
*574 _0438_
*575 _0439_
*576 _0440_
*577 _0441_
*578 _0442_
*579 _0443_
*580 _0444_
*581 _0445_
*582 _0446_
*583 _0447_
*584 _0448_
*585 _0449_
*586 _0450_
*587 _0451_
*588 _0452_
*589 _0453_
*590 _0454_
*591 _0455_
*592 _0456_
*593 _0457_
*594 _0458_
*595 _0459_
*596 _0460_
*597 _0461_
*598 _0462_
*599 _0463_
*600 _0464_
*601 _0465_
*602 _0466_
*603 _0467_
*604 _0468_
*605 _0469_
*606 _0470_
*607 _0471_
*608 _0472_
*609 _0473_
*610 _0474_
*611 _0475_
*612 _0476_
*613 _0477_
*614 _0478_
*615 _0479_
*616 _0480_
*617 _0481_
*618 _0482_
*619 _0483_
*620 _0484_
*621 _0485_
*622 _0486_
*623 _0487_
*624 _0488_
*625 _0489_
*626 _0490_
*627 _0491_
*628 _0492_
*629 _0493_
*630 _0494_
*631 _0495_
*632 _0496_
*633 _0497_
*634 _0498_
*635 _0499_
*636 _0500_
*637 _0501_
*638 _0502_
*639 _0503_
*640 _0504_
*641 _0505_
*642 _0506_
*643 _0507_
*644 _0508_
*645 _0509_
*646 _0510_
*647 _0511_
*648 _0512_
*649 _0513_
*650 _0514_
*651 _0515_
*652 _0516_
*653 _0517_
*654 _0518_
*655 _0519_
*656 _0520_
*657 _0521_
*658 _0522_
*659 _0523_
*660 _0524_
*661 _0525_
*662 _0526_
*663 _0527_
*664 _0528_
*665 _0529_
*666 _0530_
*667 _0531_
*668 _0532_
*669 _0533_
*670 _0534_
*671 _0535_
*672 _0536_
*673 _0537_
*674 _0538_
*675 _0539_
*676 _0540_
*677 _0541_
*678 _0542_
*679 _0543_
*680 _0544_
*681 _0545_
*682 _0546_
*683 _0547_
*684 _0548_
*685 _0549_
*686 _0550_
*687 _0551_
*688 _0552_
*689 _0553_
*690 _0554_
*691 _0555_
*692 _0556_
*693 _0557_
*694 _0558_
*695 _0559_
*696 _0560_
*697 _0561_
*698 _0562_
*699 _0563_
*700 _0564_
*701 _0565_
*702 _0566_
*703 _0567_
*704 _0568_
*705 _0569_
*706 _0570_
*707 _0571_
*708 _0572_
*709 _0573_
*710 _0574_
*711 _0575_
*712 _0576_
*713 _0577_
*714 _0578_
*715 _0579_
*716 _0580_
*717 _0581_
*718 _0582_
*719 _0583_
*720 _0584_
*721 _0585_
*722 _0586_
*723 _0587_
*724 _0588_
*725 _0589_
*726 _0590_
*727 _0591_
*728 _0592_
*729 clknet_0_clk
*730 clknet_3_0__leaf_clk
*731 clknet_3_1__leaf_clk
*732 clknet_3_2__leaf_clk
*733 clknet_3_3__leaf_clk
*734 clknet_3_4__leaf_clk
*735 clknet_3_5__leaf_clk
*736 clknet_3_6__leaf_clk
*737 clknet_3_7__leaf_clk
*738 cycle_reg\.bit0\.BitData
*739 cycle_reg\.bit0\.BitOut
*740 cycle_reg\.bit1\.BitData
*741 cycle_reg\.bit1\.BitOut
*742 cycle_reg\.bit2\.BitData
*743 cycle_reg\.bit2\.BitOut
*744 cycle_reg\.bit3\.BitData
*745 cycle_reg\.bit3\.BitOut
*746 cycle_reg\.bit4\.BitData
*747 cycle_reg\.bit4\.BitOut
*748 net1
*749 net10
*750 net100
*751 net101
*752 net102
*753 net103
*754 net104
*755 net105
*756 net106
*757 net107
*758 net108
*759 net109
*760 net11
*761 net110
*762 net111
*763 net112
*764 net113
*765 net114
*766 net115
*767 net116
*768 net117
*769 net118
*770 net119
*771 net12
*772 net120
*773 net121
*774 net122
*775 net123
*776 net124
*777 net125
*778 net126
*779 net127
*780 net128
*781 net129
*782 net13
*783 net130
*784 net131
*785 net132
*786 net133
*787 net134
*788 net135
*789 net136
*790 net137
*791 net138
*792 net139
*793 net14
*794 net140
*795 net141
*796 net142
*797 net143
*798 net144
*799 net145
*800 net146
*801 net147
*802 net148
*803 net149
*804 net15
*805 net150
*806 net151
*807 net152
*808 net153
*809 net154
*810 net155
*811 net156
*812 net157
*813 net158
*814 net159
*815 net16
*816 net160
*817 net161
*818 net162
*819 net163
*820 net164
*821 net165
*822 net166
*823 net17
*824 net18
*825 net19
*826 net2
*827 net20
*828 net21
*829 net22
*830 net23
*831 net24
*832 net25
*833 net26
*834 net27
*835 net28
*836 net29
*837 net3
*838 net30
*839 net31
*840 net32
*841 net33
*842 net34
*843 net35
*844 net36
*845 net37
*846 net38
*847 net39
*848 net4
*849 net40
*850 net41
*851 net42
*852 net43
*853 net44
*854 net45
*855 net46
*856 net47
*857 net48
*858 net49
*859 net5
*860 net50
*861 net51
*862 net52
*863 net53
*864 net54
*865 net55
*866 net56
*867 net57
*868 net58
*869 net59
*870 net6
*871 net60
*872 net61
*873 net62
*874 net63
*875 net64
*876 net65
*877 net66
*878 net67
*879 net68
*880 net69
*881 net7
*882 net70
*883 net71
*884 net72
*885 net73
*886 net74
*887 net75
*888 net76
*889 net77
*890 net78
*891 net79
*892 net8
*893 net80
*894 net81
*895 net82
*896 net83
*897 net84
*898 net85
*899 net86
*900 net87
*901 net88
*902 net89
*903 net9
*904 net90
*905 net91
*906 net92
*907 net93
*908 net94
*909 net95
*910 net96
*911 net97
*912 net98
*913 net99
*914 reg32_denom\.bit0\.BitOut
*915 reg32_denom\.bit1\.BitOut
*916 reg32_denom\.bit10\.BitOut
*917 reg32_denom\.bit11\.BitOut
*918 reg32_denom\.bit12\.BitOut
*919 reg32_denom\.bit13\.BitOut
*920 reg32_denom\.bit14\.BitOut
*921 reg32_denom\.bit15\.BitOut
*922 reg32_denom\.bit16\.BitOut
*923 reg32_denom\.bit17\.BitOut
*924 reg32_denom\.bit18\.BitOut
*925 reg32_denom\.bit19\.BitOut
*926 reg32_denom\.bit2\.BitOut
*927 reg32_denom\.bit20\.BitOut
*928 reg32_denom\.bit21\.BitOut
*929 reg32_denom\.bit22\.BitOut
*930 reg32_denom\.bit23\.BitOut
*931 reg32_denom\.bit24\.BitOut
*932 reg32_denom\.bit25\.BitOut
*933 reg32_denom\.bit26\.BitOut
*934 reg32_denom\.bit27\.BitOut
*935 reg32_denom\.bit28\.BitOut
*936 reg32_denom\.bit29\.BitOut
*937 reg32_denom\.bit3\.BitOut
*938 reg32_denom\.bit30\.BitOut
*939 reg32_denom\.bit31\.BitOut
*940 reg32_denom\.bit4\.BitOut
*941 reg32_denom\.bit5\.BitOut
*942 reg32_denom\.bit6\.BitOut
*943 reg32_denom\.bit7\.BitOut
*944 reg32_denom\.bit8\.BitOut
*945 reg32_denom\.bit9\.BitOut
*946 reg32_result\.bit0\.BitData
*947 reg32_result\.bit1\.BitData
*948 reg32_result\.bit10\.BitData
*949 reg32_result\.bit11\.BitData
*950 reg32_result\.bit12\.BitData
*951 reg32_result\.bit13\.BitData
*952 reg32_result\.bit14\.BitData
*953 reg32_result\.bit15\.BitData
*954 reg32_result\.bit16\.BitData
*955 reg32_result\.bit17\.BitData
*956 reg32_result\.bit18\.BitData
*957 reg32_result\.bit19\.BitData
*958 reg32_result\.bit2\.BitData
*959 reg32_result\.bit20\.BitData
*960 reg32_result\.bit21\.BitData
*961 reg32_result\.bit22\.BitData
*962 reg32_result\.bit23\.BitData
*963 reg32_result\.bit24\.BitData
*964 reg32_result\.bit25\.BitData
*965 reg32_result\.bit26\.BitData
*966 reg32_result\.bit27\.BitData
*967 reg32_result\.bit28\.BitData
*968 reg32_result\.bit29\.BitData
*969 reg32_result\.bit3\.BitData
*970 reg32_result\.bit30\.BitData
*971 reg32_result\.bit31\.BitData
*972 reg32_result\.bit4\.BitData
*973 reg32_result\.bit5\.BitData
*974 reg32_result\.bit6\.BitData
*975 reg32_result\.bit7\.BitData
*976 reg32_result\.bit8\.BitData
*977 reg32_result\.bit9\.BitData
*978 reg32_work\.bit0\.BitData
*979 reg32_work\.bit1\.BitData
*980 reg32_work\.bit10\.BitData
*981 reg32_work\.bit11\.BitData
*982 reg32_work\.bit12\.BitData
*983 reg32_work\.bit13\.BitData
*984 reg32_work\.bit14\.BitData
*985 reg32_work\.bit15\.BitData
*986 reg32_work\.bit16\.BitData
*987 reg32_work\.bit17\.BitData
*988 reg32_work\.bit18\.BitData
*989 reg32_work\.bit19\.BitData
*990 reg32_work\.bit2\.BitData
*991 reg32_work\.bit20\.BitData
*992 reg32_work\.bit21\.BitData
*993 reg32_work\.bit22\.BitData
*994 reg32_work\.bit23\.BitData
*995 reg32_work\.bit24\.BitData
*996 reg32_work\.bit25\.BitData
*997 reg32_work\.bit26\.BitData
*998 reg32_work\.bit27\.BitData
*999 reg32_work\.bit28\.BitData
*1000 reg32_work\.bit29\.BitData
*1001 reg32_work\.bit3\.BitData
*1002 reg32_work\.bit30\.BitData
*1003 reg32_work\.bit31\.BitData
*1004 reg32_work\.bit4\.BitData
*1005 reg32_work\.bit5\.BitData
*1006 reg32_work\.bit6\.BitData
*1007 reg32_work\.bit7\.BitData
*1008 reg32_work\.bit8\.BitData
*1009 reg32_work\.bit9\.BitData
*1010 u1\.d
*1011 u1\.q
*1012 ANTENNA_1
*1013 ANTENNA_2
*1014 ANTENNA_3
*1015 FILLER_0_0_100
*1016 FILLER_0_0_104
*1017 FILLER_0_0_111
*1018 FILLER_0_0_113
*1019 FILLER_0_0_12
*1020 FILLER_0_0_127
*1021 FILLER_0_0_135
*1022 FILLER_0_0_139
*1023 FILLER_0_0_141
*1024 FILLER_0_0_145
*1025 FILLER_0_0_164
*1026 FILLER_0_0_178
*1027 FILLER_0_0_184
*1028 FILLER_0_0_191
*1029 FILLER_0_0_195
*1030 FILLER_0_0_209
*1031 FILLER_0_0_217
*1032 FILLER_0_0_231
*1033 FILLER_0_0_244
*1034 FILLER_0_0_251
*1035 FILLER_0_0_253
*1036 FILLER_0_0_26
*1037 FILLER_0_0_3
*1038 FILLER_0_0_44
*1039 FILLER_0_0_51
*1040 FILLER_0_0_55
*1041 FILLER_0_0_57
*1042 FILLER_0_0_62
*1043 FILLER_0_0_69
*1044 FILLER_0_0_76
*1045 FILLER_0_0_85
*1046 FILLER_0_0_9
*1047 FILLER_0_0_90
*1048 FILLER_0_10_104
*1049 FILLER_0_10_116
*1050 FILLER_0_10_128
*1051 FILLER_0_10_141
*1052 FILLER_0_10_167
*1053 FILLER_0_10_175
*1054 FILLER_0_10_184
*1055 FILLER_0_10_194
*1056 FILLER_0_10_197
*1057 FILLER_0_10_209
*1058 FILLER_0_10_213
*1059 FILLER_0_10_234
*1060 FILLER_0_10_24
*1061 FILLER_0_10_246
*1062 FILLER_0_10_253
*1063 FILLER_0_10_259
*1064 FILLER_0_10_39
*1065 FILLER_0_10_51
*1066 FILLER_0_10_92
*1067 FILLER_0_11_110
*1068 FILLER_0_11_113
*1069 FILLER_0_11_12
*1070 FILLER_0_11_121
*1071 FILLER_0_11_144
*1072 FILLER_0_11_150
*1073 FILLER_0_11_16
*1074 FILLER_0_11_163
*1075 FILLER_0_11_167
*1076 FILLER_0_11_169
*1077 FILLER_0_11_196
*1078 FILLER_0_11_202
*1079 FILLER_0_11_215
*1080 FILLER_0_11_222
*1081 FILLER_0_11_228
*1082 FILLER_0_11_24
*1083 FILLER_0_11_240
*1084 FILLER_0_11_47
*1085 FILLER_0_11_55
*1086 FILLER_0_11_57
*1087 FILLER_0_11_65
*1088 FILLER_0_11_73
*1089 FILLER_0_11_85
*1090 FILLER_0_11_98
*1091 FILLER_0_12_134
*1092 FILLER_0_12_141
*1093 FILLER_0_12_15
*1094 FILLER_0_12_153
*1095 FILLER_0_12_161
*1096 FILLER_0_12_171
*1097 FILLER_0_12_177
*1098 FILLER_0_12_181
*1099 FILLER_0_12_187
*1100 FILLER_0_12_19
*1101 FILLER_0_12_197
*1102 FILLER_0_12_222
*1103 FILLER_0_12_234
*1104 FILLER_0_12_240
*1105 FILLER_0_12_262
*1106 FILLER_0_12_27
*1107 FILLER_0_12_3
*1108 FILLER_0_12_38
*1109 FILLER_0_12_53
*1110 FILLER_0_12_65
*1111 FILLER_0_12_77
*1112 FILLER_0_12_83
*1113 FILLER_0_12_85
*1114 FILLER_0_12_99
*1115 FILLER_0_13_104
*1116 FILLER_0_13_108
*1117 FILLER_0_13_144
*1118 FILLER_0_13_15
*1119 FILLER_0_13_164
*1120 FILLER_0_13_177
*1121 FILLER_0_13_184
*1122 FILLER_0_13_206
*1123 FILLER_0_13_218
*1124 FILLER_0_13_222
*1125 FILLER_0_13_225
*1126 FILLER_0_13_23
*1127 FILLER_0_13_233
*1128 FILLER_0_13_30
*1129 FILLER_0_13_38
*1130 FILLER_0_13_48
*1131 FILLER_0_13_57
*1132 FILLER_0_13_65
*1133 FILLER_0_13_76
*1134 FILLER_0_13_82
*1135 FILLER_0_13_9
*1136 FILLER_0_14_104
*1137 FILLER_0_14_110
*1138 FILLER_0_14_141
*1139 FILLER_0_14_172
*1140 FILLER_0_14_194
*1141 FILLER_0_14_206
*1142 FILLER_0_14_224
*1143 FILLER_0_14_248
*1144 FILLER_0_14_259
*1145 FILLER_0_14_26
*1146 FILLER_0_14_29
*1147 FILLER_0_14_51
*1148 FILLER_0_14_63
*1149 FILLER_0_14_67
*1150 FILLER_0_14_76
*1151 FILLER_0_14_82
*1152 FILLER_0_14_85
*1153 FILLER_0_14_92
*1154 FILLER_0_15_113
*1155 FILLER_0_15_119
*1156 FILLER_0_15_131
*1157 FILLER_0_15_135
*1158 FILLER_0_15_155
*1159 FILLER_0_15_165
*1160 FILLER_0_15_169
*1161 FILLER_0_15_18
*1162 FILLER_0_15_195
*1163 FILLER_0_15_228
*1164 FILLER_0_15_234
*1165 FILLER_0_15_30
*1166 FILLER_0_15_54
*1167 FILLER_0_15_57
*1168 FILLER_0_15_67
*1169 FILLER_0_16_111
*1170 FILLER_0_16_123
*1171 FILLER_0_16_135
*1172 FILLER_0_16_139
*1173 FILLER_0_16_141
*1174 FILLER_0_16_157
*1175 FILLER_0_16_168
*1176 FILLER_0_16_17
*1177 FILLER_0_16_191
*1178 FILLER_0_16_195
*1179 FILLER_0_16_197
*1180 FILLER_0_16_205
*1181 FILLER_0_16_220
*1182 FILLER_0_16_232
*1183 FILLER_0_16_239
*1184 FILLER_0_16_251
*1185 FILLER_0_16_259
*1186 FILLER_0_16_29
*1187 FILLER_0_16_50
*1188 FILLER_0_16_69
*1189 FILLER_0_16_73
*1190 FILLER_0_16_80
*1191 FILLER_0_16_85
*1192 FILLER_0_16_9
*1193 FILLER_0_17_105
*1194 FILLER_0_17_122
*1195 FILLER_0_17_134
*1196 FILLER_0_17_146
*1197 FILLER_0_17_15
*1198 FILLER_0_17_154
*1199 FILLER_0_17_158
*1200 FILLER_0_17_166
*1201 FILLER_0_17_169
*1202 FILLER_0_17_175
*1203 FILLER_0_17_180
*1204 FILLER_0_17_192
*1205 FILLER_0_17_204
*1206 FILLER_0_17_212
*1207 FILLER_0_17_234
*1208 FILLER_0_17_246
*1209 FILLER_0_17_252
*1210 FILLER_0_17_262
*1211 FILLER_0_17_47
*1212 FILLER_0_17_55
*1213 FILLER_0_17_57
*1214 FILLER_0_17_6
*1215 FILLER_0_17_62
*1216 FILLER_0_17_66
*1217 FILLER_0_17_70
*1218 FILLER_0_17_74
*1219 FILLER_0_17_81
*1220 FILLER_0_17_89
*1221 FILLER_0_17_93
*1222 FILLER_0_18_101
*1223 FILLER_0_18_105
*1224 FILLER_0_18_138
*1225 FILLER_0_18_141
*1226 FILLER_0_18_147
*1227 FILLER_0_18_151
*1228 FILLER_0_18_163
*1229 FILLER_0_18_171
*1230 FILLER_0_18_189
*1231 FILLER_0_18_197
*1232 FILLER_0_18_202
*1233 FILLER_0_18_23
*1234 FILLER_0_18_231
*1235 FILLER_0_18_239
*1236 FILLER_0_18_248
*1237 FILLER_0_18_253
*1238 FILLER_0_18_265
*1239 FILLER_0_18_27
*1240 FILLER_0_18_29
*1241 FILLER_0_18_59
*1242 FILLER_0_18_73
*1243 FILLER_0_18_81
*1244 FILLER_0_18_85
*1245 FILLER_0_18_91
*1246 FILLER_0_19_100
*1247 FILLER_0_19_107
*1248 FILLER_0_19_11
*1249 FILLER_0_19_137
*1250 FILLER_0_19_15
*1251 FILLER_0_19_158
*1252 FILLER_0_19_166
*1253 FILLER_0_19_205
*1254 FILLER_0_19_222
*1255 FILLER_0_19_225
*1256 FILLER_0_19_233
*1257 FILLER_0_19_261
*1258 FILLER_0_19_3
*1259 FILLER_0_19_38
*1260 FILLER_0_19_42
*1261 FILLER_0_19_54
*1262 FILLER_0_19_57
*1263 FILLER_0_19_65
*1264 FILLER_0_19_69
*1265 FILLER_0_19_82
*1266 FILLER_0_19_94
*1267 FILLER_0_1_101
*1268 FILLER_0_1_109
*1269 FILLER_0_1_136
*1270 FILLER_0_1_160
*1271 FILLER_0_1_178
*1272 FILLER_0_1_190
*1273 FILLER_0_1_202
*1274 FILLER_0_1_214
*1275 FILLER_0_1_234
*1276 FILLER_0_1_24
*1277 FILLER_0_1_246
*1278 FILLER_0_1_252
*1279 FILLER_0_1_36
*1280 FILLER_0_1_48
*1281 FILLER_0_1_69
*1282 FILLER_0_20_107
*1283 FILLER_0_20_118
*1284 FILLER_0_20_139
*1285 FILLER_0_20_162
*1286 FILLER_0_20_194
*1287 FILLER_0_20_200
*1288 FILLER_0_20_21
*1289 FILLER_0_20_219
*1290 FILLER_0_20_223
*1291 FILLER_0_20_235
*1292 FILLER_0_20_243
*1293 FILLER_0_20_249
*1294 FILLER_0_20_25
*1295 FILLER_0_20_253
*1296 FILLER_0_20_257
*1297 FILLER_0_20_41
*1298 FILLER_0_20_53
*1299 FILLER_0_20_59
*1300 FILLER_0_20_69
*1301 FILLER_0_20_79
*1302 FILLER_0_20_83
*1303 FILLER_0_20_85
*1304 FILLER_0_20_89
*1305 FILLER_0_20_9
*1306 FILLER_0_20_99
*1307 FILLER_0_21_109
*1308 FILLER_0_21_125
*1309 FILLER_0_21_137
*1310 FILLER_0_21_160
*1311 FILLER_0_21_164
*1312 FILLER_0_21_169
*1313 FILLER_0_21_177
*1314 FILLER_0_21_18
*1315 FILLER_0_21_181
*1316 FILLER_0_21_193
*1317 FILLER_0_21_201
*1318 FILLER_0_21_222
*1319 FILLER_0_21_225
*1320 FILLER_0_21_237
*1321 FILLER_0_21_245
*1322 FILLER_0_21_31
*1323 FILLER_0_21_39
*1324 FILLER_0_21_50
*1325 FILLER_0_21_6
*1326 FILLER_0_22_102
*1327 FILLER_0_22_124
*1328 FILLER_0_22_132
*1329 FILLER_0_22_141
*1330 FILLER_0_22_145
*1331 FILLER_0_22_175
*1332 FILLER_0_22_183
*1333 FILLER_0_22_192
*1334 FILLER_0_22_197
*1335 FILLER_0_22_209
*1336 FILLER_0_22_231
*1337 FILLER_0_22_235
*1338 FILLER_0_22_24
*1339 FILLER_0_22_243
*1340 FILLER_0_22_250
*1341 FILLER_0_22_257
*1342 FILLER_0_22_29
*1343 FILLER_0_22_41
*1344 FILLER_0_22_6
*1345 FILLER_0_22_68
*1346 FILLER_0_22_74
*1347 FILLER_0_22_81
*1348 FILLER_0_22_85
*1349 FILLER_0_22_96
*1350 FILLER_0_23_111
*1351 FILLER_0_23_116
*1352 FILLER_0_23_128
*1353 FILLER_0_23_156
*1354 FILLER_0_23_169
*1355 FILLER_0_23_177
*1356 FILLER_0_23_189
*1357 FILLER_0_23_206
*1358 FILLER_0_23_215
*1359 FILLER_0_23_223
*1360 FILLER_0_23_225
*1361 FILLER_0_23_235
*1362 FILLER_0_23_265
*1363 FILLER_0_23_3
*1364 FILLER_0_23_30
*1365 FILLER_0_23_39
*1366 FILLER_0_23_51
*1367 FILLER_0_23_55
*1368 FILLER_0_23_60
*1369 FILLER_0_23_71
*1370 FILLER_0_23_83
*1371 FILLER_0_23_97
*1372 FILLER_0_24_104
*1373 FILLER_0_24_116
*1374 FILLER_0_24_127
*1375 FILLER_0_24_131
*1376 FILLER_0_24_139
*1377 FILLER_0_24_141
*1378 FILLER_0_24_149
*1379 FILLER_0_24_155
*1380 FILLER_0_24_217
*1381 FILLER_0_24_24
*1382 FILLER_0_24_3
*1383 FILLER_0_24_37
*1384 FILLER_0_24_41
*1385 FILLER_0_24_65
*1386 FILLER_0_24_83
*1387 FILLER_0_24_85
*1388 FILLER_0_24_89
*1389 FILLER_0_24_93
*1390 FILLER_0_24_99
*1391 FILLER_0_25_113
*1392 FILLER_0_25_122
*1393 FILLER_0_25_13
*1394 FILLER_0_25_143
*1395 FILLER_0_25_151
*1396 FILLER_0_25_163
*1397 FILLER_0_25_167
*1398 FILLER_0_25_169
*1399 FILLER_0_25_210
*1400 FILLER_0_25_221
*1401 FILLER_0_25_231
*1402 FILLER_0_25_235
*1403 FILLER_0_25_265
*1404 FILLER_0_25_27
*1405 FILLER_0_25_36
*1406 FILLER_0_25_48
*1407 FILLER_0_25_53
*1408 FILLER_0_25_57
*1409 FILLER_0_25_69
*1410 FILLER_0_25_73
*1411 FILLER_0_25_9
*1412 FILLER_0_25_95
*1413 FILLER_0_26_128
*1414 FILLER_0_26_141
*1415 FILLER_0_26_159
*1416 FILLER_0_26_171
*1417 FILLER_0_26_179
*1418 FILLER_0_26_190
*1419 FILLER_0_26_233
*1420 FILLER_0_26_241
*1421 FILLER_0_26_250
*1422 FILLER_0_26_264
*1423 FILLER_0_26_3
*1424 FILLER_0_26_56
*1425 FILLER_0_26_60
*1426 FILLER_0_26_72
*1427 FILLER_0_26_85
*1428 FILLER_0_26_93
*1429 FILLER_0_27_100
*1430 FILLER_0_27_125
*1431 FILLER_0_27_134
*1432 FILLER_0_27_146
*1433 FILLER_0_27_162
*1434 FILLER_0_27_173
*1435 FILLER_0_27_185
*1436 FILLER_0_27_197
*1437 FILLER_0_27_204
*1438 FILLER_0_27_220
*1439 FILLER_0_27_234
*1440 FILLER_0_27_245
*1441 FILLER_0_27_253
*1442 FILLER_0_27_259
*1443 FILLER_0_27_33
*1444 FILLER_0_27_55
*1445 FILLER_0_27_61
*1446 FILLER_0_27_88
*1447 FILLER_0_27_9
*1448 FILLER_0_28_106
*1449 FILLER_0_28_114
*1450 FILLER_0_28_121
*1451 FILLER_0_28_133
*1452 FILLER_0_28_139
*1453 FILLER_0_28_141
*1454 FILLER_0_28_165
*1455 FILLER_0_28_177
*1456 FILLER_0_28_189
*1457 FILLER_0_28_195
*1458 FILLER_0_28_206
*1459 FILLER_0_28_210
*1460 FILLER_0_28_251
*1461 FILLER_0_28_26
*1462 FILLER_0_28_262
*1463 FILLER_0_28_3
*1464 FILLER_0_28_35
*1465 FILLER_0_28_43
*1466 FILLER_0_28_65
*1467 FILLER_0_28_97
*1468 FILLER_0_29_103
*1469 FILLER_0_29_111
*1470 FILLER_0_29_134
*1471 FILLER_0_29_14
*1472 FILLER_0_29_166
*1473 FILLER_0_29_178
*1474 FILLER_0_29_185
*1475 FILLER_0_29_206
*1476 FILLER_0_29_218
*1477 FILLER_0_29_222
*1478 FILLER_0_29_234
*1479 FILLER_0_29_238
*1480 FILLER_0_29_26
*1481 FILLER_0_29_260
*1482 FILLER_0_29_34
*1483 FILLER_0_29_55
*1484 FILLER_0_29_57
*1485 FILLER_0_29_63
*1486 FILLER_0_29_68
*1487 FILLER_0_29_86
*1488 FILLER_0_29_9
*1489 FILLER_0_29_90
*1490 FILLER_0_29_99
*1491 FILLER_0_2_106
*1492 FILLER_0_2_12
*1493 FILLER_0_2_139
*1494 FILLER_0_2_141
*1495 FILLER_0_2_149
*1496 FILLER_0_2_153
*1497 FILLER_0_2_182
*1498 FILLER_0_2_194
*1499 FILLER_0_2_197
*1500 FILLER_0_2_209
*1501 FILLER_0_2_24
*1502 FILLER_0_2_244
*1503 FILLER_0_2_253
*1504 FILLER_0_2_29
*1505 FILLER_0_2_33
*1506 FILLER_0_2_83
*1507 FILLER_0_30_119
*1508 FILLER_0_30_131
*1509 FILLER_0_30_139
*1510 FILLER_0_30_15
*1511 FILLER_0_30_171
*1512 FILLER_0_30_183
*1513 FILLER_0_30_194
*1514 FILLER_0_30_203
*1515 FILLER_0_30_211
*1516 FILLER_0_30_233
*1517 FILLER_0_30_245
*1518 FILLER_0_30_251
*1519 FILLER_0_30_27
*1520 FILLER_0_30_3
*1521 FILLER_0_30_38
*1522 FILLER_0_30_50
*1523 FILLER_0_30_59
*1524 FILLER_0_30_71
*1525 FILLER_0_30_81
*1526 FILLER_0_30_85
*1527 FILLER_0_30_93
*1528 FILLER_0_31_100
*1529 FILLER_0_31_113
*1530 FILLER_0_31_117
*1531 FILLER_0_31_12
*1532 FILLER_0_31_133
*1533 FILLER_0_31_145
*1534 FILLER_0_31_166
*1535 FILLER_0_31_172
*1536 FILLER_0_31_180
*1537 FILLER_0_31_225
*1538 FILLER_0_31_232
*1539 FILLER_0_31_263
*1540 FILLER_0_31_37
*1541 FILLER_0_31_53
*1542 FILLER_0_31_57
*1543 FILLER_0_31_61
*1544 FILLER_0_31_65
*1545 FILLER_0_31_92
*1546 FILLER_0_32_105
*1547 FILLER_0_32_109
*1548 FILLER_0_32_133
*1549 FILLER_0_32_139
*1550 FILLER_0_32_141
*1551 FILLER_0_32_173
*1552 FILLER_0_32_181
*1553 FILLER_0_32_187
*1554 FILLER_0_32_195
*1555 FILLER_0_32_206
*1556 FILLER_0_32_210
*1557 FILLER_0_32_226
*1558 FILLER_0_32_238
*1559 FILLER_0_32_242
*1560 FILLER_0_32_256
*1561 FILLER_0_32_3
*1562 FILLER_0_32_47
*1563 FILLER_0_32_74
*1564 FILLER_0_32_81
*1565 FILLER_0_32_93
*1566 FILLER_0_33_103
*1567 FILLER_0_33_107
*1568 FILLER_0_33_11
*1569 FILLER_0_33_117
*1570 FILLER_0_33_130
*1571 FILLER_0_33_142
*1572 FILLER_0_33_154
*1573 FILLER_0_33_165
*1574 FILLER_0_33_169
*1575 FILLER_0_33_181
*1576 FILLER_0_33_187
*1577 FILLER_0_33_192
*1578 FILLER_0_33_204
*1579 FILLER_0_33_208
*1580 FILLER_0_33_213
*1581 FILLER_0_33_219
*1582 FILLER_0_33_223
*1583 FILLER_0_33_234
*1584 FILLER_0_33_242
*1585 FILLER_0_33_247
*1586 FILLER_0_33_259
*1587 FILLER_0_33_265
*1588 FILLER_0_33_3
*1589 FILLER_0_33_32
*1590 FILLER_0_33_44
*1591 FILLER_0_33_57
*1592 FILLER_0_33_65
*1593 FILLER_0_33_74
*1594 FILLER_0_33_78
*1595 FILLER_0_34_105
*1596 FILLER_0_34_116
*1597 FILLER_0_34_123
*1598 FILLER_0_34_135
*1599 FILLER_0_34_139
*1600 FILLER_0_34_141
*1601 FILLER_0_34_150
*1602 FILLER_0_34_178
*1603 FILLER_0_34_190
*1604 FILLER_0_34_197
*1605 FILLER_0_34_235
*1606 FILLER_0_34_247
*1607 FILLER_0_34_251
*1608 FILLER_0_34_253
*1609 FILLER_0_34_261
*1610 FILLER_0_34_27
*1611 FILLER_0_34_29
*1612 FILLER_0_34_41
*1613 FILLER_0_34_50
*1614 FILLER_0_34_6
*1615 FILLER_0_34_62
*1616 FILLER_0_34_74
*1617 FILLER_0_34_80
*1618 FILLER_0_35_103
*1619 FILLER_0_35_111
*1620 FILLER_0_35_113
*1621 FILLER_0_35_125
*1622 FILLER_0_35_131
*1623 FILLER_0_35_156
*1624 FILLER_0_35_164
*1625 FILLER_0_35_183
*1626 FILLER_0_35_189
*1627 FILLER_0_35_193
*1628 FILLER_0_35_205
*1629 FILLER_0_35_215
*1630 FILLER_0_35_225
*1631 FILLER_0_35_237
*1632 FILLER_0_35_252
*1633 FILLER_0_35_264
*1634 FILLER_0_35_34
*1635 FILLER_0_35_41
*1636 FILLER_0_35_70
*1637 FILLER_0_35_9
*1638 FILLER_0_35_93
*1639 FILLER_0_36_112
*1640 FILLER_0_36_125
*1641 FILLER_0_36_138
*1642 FILLER_0_36_186
*1643 FILLER_0_36_220
*1644 FILLER_0_36_232
*1645 FILLER_0_36_244
*1646 FILLER_0_36_253
*1647 FILLER_0_36_261
*1648 FILLER_0_36_3
*1649 FILLER_0_36_46
*1650 FILLER_0_36_56
*1651 FILLER_0_36_68
*1652 FILLER_0_36_7
*1653 FILLER_0_37_100
*1654 FILLER_0_37_113
*1655 FILLER_0_37_13
*1656 FILLER_0_37_146
*1657 FILLER_0_37_152
*1658 FILLER_0_37_160
*1659 FILLER_0_37_17
*1660 FILLER_0_37_187
*1661 FILLER_0_37_222
*1662 FILLER_0_37_225
*1663 FILLER_0_37_237
*1664 FILLER_0_37_249
*1665 FILLER_0_37_261
*1666 FILLER_0_37_57
*1667 FILLER_0_37_82
*1668 FILLER_0_37_9
*1669 FILLER_0_38_108
*1670 FILLER_0_38_128
*1671 FILLER_0_38_144
*1672 FILLER_0_38_15
*1673 FILLER_0_38_156
*1674 FILLER_0_38_164
*1675 FILLER_0_38_181
*1676 FILLER_0_38_193
*1677 FILLER_0_38_203
*1678 FILLER_0_38_210
*1679 FILLER_0_38_232
*1680 FILLER_0_38_244
*1681 FILLER_0_38_253
*1682 FILLER_0_38_265
*1683 FILLER_0_38_27
*1684 FILLER_0_38_29
*1685 FILLER_0_38_3
*1686 FILLER_0_38_33
*1687 FILLER_0_38_53
*1688 FILLER_0_38_68
*1689 FILLER_0_38_80
*1690 FILLER_0_39_101
*1691 FILLER_0_39_109
*1692 FILLER_0_39_113
*1693 FILLER_0_39_122
*1694 FILLER_0_39_134
*1695 FILLER_0_39_140
*1696 FILLER_0_39_152
*1697 FILLER_0_39_158
*1698 FILLER_0_39_165
*1699 FILLER_0_39_174
*1700 FILLER_0_39_18
*1701 FILLER_0_39_186
*1702 FILLER_0_39_198
*1703 FILLER_0_39_206
*1704 FILLER_0_39_210
*1705 FILLER_0_39_214
*1706 FILLER_0_39_245
*1707 FILLER_0_39_257
*1708 FILLER_0_39_30
*1709 FILLER_0_39_42
*1710 FILLER_0_39_52
*1711 FILLER_0_39_6
*1712 FILLER_0_39_64
*1713 FILLER_0_39_76
*1714 FILLER_0_39_80
*1715 FILLER_0_39_88
*1716 FILLER_0_3_109
*1717 FILLER_0_3_113
*1718 FILLER_0_3_121
*1719 FILLER_0_3_130
*1720 FILLER_0_3_136
*1721 FILLER_0_3_140
*1722 FILLER_0_3_15
*1723 FILLER_0_3_150
*1724 FILLER_0_3_162
*1725 FILLER_0_3_169
*1726 FILLER_0_3_175
*1727 FILLER_0_3_185
*1728 FILLER_0_3_197
*1729 FILLER_0_3_203
*1730 FILLER_0_3_231
*1731 FILLER_0_3_243
*1732 FILLER_0_3_255
*1733 FILLER_0_3_263
*1734 FILLER_0_3_27
*1735 FILLER_0_3_3
*1736 FILLER_0_3_39
*1737 FILLER_0_3_47
*1738 FILLER_0_3_54
*1739 FILLER_0_3_63
*1740 FILLER_0_3_84
*1741 FILLER_0_40_104
*1742 FILLER_0_40_110
*1743 FILLER_0_40_131
*1744 FILLER_0_40_152